MODEL 1
REMARK VINA RESULT:      -5.0      0.000      0.000
REMARK  2 active torsions:
REMARK  status: ('A' for Active; 'I' for Inactive)
REMARK    1  A    between atoms: C_4  and  C_10 
REMARK    2  A    between atoms: C_5  and  C_10 
ROOT
HETATM    1  N   UNK     0       9.527   7.998  -9.239  0.00  0.00     0.614 N 
HETATM    2  C   UNK     0      10.848   8.334  -8.412  0.00  0.00     0.270 A 
HETATM    3  C   UNK     0      12.958   9.899  -7.969  0.00  0.00     0.002 A 
HETATM    4  C   UNK     0      13.170   8.073  -6.229  0.00  0.00     0.002 A 
HETATM    5  C   UNK     0      12.561   7.739  -6.458  0.00  0.00     0.004 A 
HETATM    6  C   UNK     0      11.684   9.575  -8.768  0.00  0.00     0.037 A 
HETATM    7  C   UNK     0      11.790   7.723  -7.094  0.00  0.00     0.035 A 
HETATM    8  C   UNK     0      11.287   7.415  -7.256  0.00  0.00     0.037 A 
HETATM    9  C   UNK     0      14.015   9.403  -6.653  0.00  0.00     0.000 A 
HETATM   10  C   UNK     0      13.160   8.922  -6.963  0.00  0.00     0.000 A 
HETATM   11  C   UNK     0      13.000   6.822  -5.302  0.00  0.00     0.000 A 
ENDROOT
TORSDOF 2
ENDMDL
MODEL 2
REMARK VINA RESULT:      -4.8      2.047      2.876
REMARK  2 active torsions:
REMARK  status: ('A' for Active; 'I' for Inactive)
REMARK    1  A    between atoms: C_4  and  C_10 
REMARK    2  A    between atoms: C_5  and  C_10 
ROOT
HETATM    1  N   UNK     0      15.047  11.145  -7.671  0.00  0.00     0.614 N 
HETATM    2  C   UNK     0      13.900  10.040  -7.587  0.00  0.00     0.270 A 
HETATM    3  C   UNK     0      11.651   8.971  -8.535  0.00  0.00     0.002 A 
HETATM    4  C   UNK     0      12.229   7.522  -6.542  0.00  0.00     0.002 A 
HETATM    5  C   UNK     0      12.830   7.911  -6.393  0.00  0.00     0.004 A 
HETATM    6  C   UNK     0      12.757  10.037  -8.617  0.00  0.00     0.037 A 
HETATM    7  C   UNK     0      13.427   8.676  -6.630  0.00  0.00     0.035 A 
HETATM    8  C   UNK     0      13.936   8.976  -6.474  0.00  0.00     0.037 A 
HETATM    9  C   UNK     0      11.043   7.570  -7.663  0.00  0.00     0.000 A 
HETATM   10  C   UNK     0      11.893   8.107  -7.439  0.00  0.00     0.000 A 
HETATM   11  C   UNK     0      12.866   6.847  -5.281  0.00  0.00     0.000 A 
ENDROOT
TORSDOF 2
ENDMDL
MODEL 3
REMARK VINA RESULT:      -4.7      2.324      3.105
REMARK  2 active torsions:
REMARK  status: ('A' for Active; 'I' for Inactive)
REMARK    1  A    between atoms: C_4  and  C_10 
REMARK    2  A    between atoms: C_5  and  C_10 
ROOT
HETATM    1  N   UNK     0       7.821  10.323  -5.092  0.00  0.00     0.614 N 
HETATM    2  C   UNK     0       8.806   9.590  -6.109  0.00  0.00     0.270 A 
HETATM    3  C   UNK     0       9.400   8.804  -8.585  0.00  0.00     0.002 A 
HETATM    4  C   UNK     0      11.349   7.984  -7.194  0.00  0.00     0.002 A 
HETATM    5  C   UNK     0      11.065   8.255  -6.576  0.00  0.00     0.004 A 
HETATM    6  C   UNK     0       8.450   9.511  -7.604  0.00  0.00     0.037 A 
HETATM    7  C   UNK     0      10.320   8.750  -6.131  0.00  0.00     0.035 A 
HETATM    8  C   UNK     0      10.115   8.962  -5.595  0.00  0.00     0.037 A 
HETATM    9  C   UNK     0      10.917   7.932  -8.766  0.00  0.00     0.000 A 
HETATM   10  C   UNK     0      10.531   8.308  -7.889  0.00  0.00     0.000 A 
HETATM   11  C   UNK     0      12.374   7.627  -6.063  0.00  0.00     0.000 A 
ENDROOT
TORSDOF 2
ENDMDL
MODEL 4
REMARK VINA RESULT:      -4.7      1.688      2.496
REMARK  2 active torsions:
REMARK  status: ('A' for Active; 'I' for Inactive)
REMARK    1  A    between atoms: C_4  and  C_10 
REMARK    2  A    between atoms: C_5  and  C_10 
ROOT
HETATM    1  N   UNK     0       9.641   7.725 -10.787  0.00  0.00     0.614 N 
HETATM    2  C   UNK     0       9.811   8.162  -9.264  0.00  0.00     0.270 A 
HETATM    3  C   UNK     0       8.951   9.534  -7.147  0.00  0.00     0.002 A 
HETATM    4  C   UNK     0      11.045   8.376  -6.321  0.00  0.00     0.002 A 
HETATM    5  C   UNK     0      11.164   8.057  -6.969  0.00  0.00     0.004 A 
HETATM    6  C   UNK     0       8.787   9.111  -8.617  0.00  0.00     0.037 A 
HETATM    7  C   UNK     0      10.868   7.919  -7.914  0.00  0.00     0.035 A 
HETATM    8  C   UNK     0      11.000   7.635  -8.439  0.00  0.00     0.037 A 
HETATM    9  C   UNK     0       9.928   9.384  -5.691  0.00  0.00     0.000 A 
HETATM   10  C   UNK     0      10.108   8.928  -6.597  0.00  0.00     0.000 A 
HETATM   11  C   UNK     0      12.352   7.530  -6.145  0.00  0.00     0.000 A 
ENDROOT
TORSDOF 2
ENDMDL
MODEL 5
REMARK VINA RESULT:      -4.6      0.895      2.315
REMARK  2 active torsions:
REMARK  status: ('A' for Active; 'I' for Inactive)
REMARK    1  A    between atoms: C_4  and  C_10 
REMARK    2  A    between atoms: C_5  and  C_10 
ROOT
HETATM    1  N   UNK     0      10.783   9.749 -10.099  0.00  0.00     0.614 N 
HETATM    2  C   UNK     0      11.525   9.161  -8.816  0.00  0.00     0.270 A 
HETATM    3  C   UNK     0      11.674   7.356  -6.862  0.00  0.00     0.002 A 
HETATM    4  C   UNK     0      13.687   8.842  -6.482  0.00  0.00     0.002 A 
HETATM    5  C   UNK     0      13.526   9.264  -7.057  0.00  0.00     0.004 A 
HETATM    6  C   UNK     0      10.958   7.923  -8.099  0.00  0.00     0.037 A 
HETATM    7  C   UNK     0      12.912   9.456  -7.822  0.00  0.00     0.035 A 
HETATM    8  C   UNK     0      12.810   9.831  -8.295  0.00  0.00     0.037 A 
HETATM    9  C   UNK     0      13.038   7.528  -5.765  0.00  0.00     0.000 A 
HETATM   10  C   UNK     0      12.824   8.131  -6.571  0.00  0.00     0.000 A 
HETATM   11  C   UNK     0      14.810   9.934  -6.536  0.00  0.00     0.000 A 
ENDROOT
TORSDOF 2
ENDMDL
MODEL 6
REMARK VINA RESULT:      -4.3      2.329      4.031
REMARK  2 active torsions:
REMARK  status: ('A' for Active; 'I' for Inactive)
REMARK    1  A    between atoms: C_4  and  C_10 
REMARK    2  A    between atoms: C_5  and  C_10 
ROOT
HETATM    1  N   UNK     0      12.562   7.425  -5.833  0.00  0.00     0.614 N 
HETATM    2  C   UNK     0      11.340   7.980  -6.692  0.00  0.00     0.270 A 
HETATM    3  C   UNK     0       9.203   9.557  -6.916  0.00  0.00     0.002 A 
HETATM    4  C   UNK     0       9.341   8.386  -9.156  0.00  0.00     0.002 A 
HETATM    5  C   UNK     0       9.937   8.010  -8.959  0.00  0.00     0.004 A 
HETATM    6  C   UNK     0      10.383   9.021  -6.087  0.00  0.00     0.037 A 
HETATM    7  C   UNK     0      10.619   7.806  -8.257  0.00  0.00     0.035 A 
HETATM    8  C   UNK     0      11.117   7.474  -8.130  0.00  0.00     0.037 A 
HETATM    9  C   UNK     0       8.361   9.489  -8.459  0.00  0.00     0.000 A 
HETATM   10  C   UNK     0       9.200   8.952  -8.197  0.00  0.00     0.000 A 
HETATM   11  C   UNK     0       9.714   7.504 -10.396  0.00  0.00     0.000 A 
ENDROOT
TORSDOF 2
ENDMDL
MODEL 7
REMARK VINA RESULT:      -4.2      2.321      3.621
REMARK  2 active torsions:
REMARK  status: ('A' for Active; 'I' for Inactive)
REMARK    1  A    between atoms: C_4  and  C_10 
REMARK    2  A    between atoms: C_5  and  C_10 
ROOT
HETATM    1  N   UNK     0       7.365  10.788  -6.653  0.00  0.00     0.614 N 
HETATM    2  C   UNK     0       8.585   9.810  -6.962  0.00  0.00     0.270 A 
HETATM    3  C   UNK     0      10.801   8.562  -6.167  0.00  0.00     0.002 A 
HETATM    4  C   UNK     0      10.512   7.830  -8.572  0.00  0.00     0.002 A 
HETATM    5  C   UNK     0       9.903   8.227  -8.654  0.00  0.00     0.004 A 
HETATM    6  C   UNK     0       9.624   9.506  -5.868  0.00  0.00     0.037 A 
HETATM    7  C   UNK     0       9.237   8.852  -8.249  0.00  0.00     0.035 A 
HETATM    8  C   UNK     0       8.725   9.170  -8.356  0.00  0.00     0.037 A 
HETATM    9  C   UNK     0      11.581   7.546  -7.372  0.00  0.00     0.000 A 
HETATM   10  C   UNK     0      10.722   8.098  -7.503  0.00  0.00     0.000 A 
HETATM   11  C   UNK     0      10.043   7.587 -10.047  0.00  0.00     0.000 A 
ENDROOT
TORSDOF 2
ENDMDL
MODEL 8
REMARK VINA RESULT:      -4.2      6.473      7.582
REMARK  2 active torsions:
REMARK  status: ('A' for Active; 'I' for Inactive)
REMARK    1  A    between atoms: C_4  and  C_10 
REMARK    2  A    between atoms: C_5  and  C_10 
ROOT
HETATM    1  N   UNK     0       9.115   9.505  -5.478  0.00  0.00     0.614 N 
HETATM    2  C   UNK     0       7.606  10.003  -5.598  0.00  0.00     0.270 A 
HETATM    3  C   UNK     0       5.244   9.933  -6.831  0.00  0.00     0.002 A 
HETATM    4  C   UNK     0       4.909  11.594  -4.950  0.00  0.00     0.002 A 
HETATM    5  C   UNK     0       5.597  11.515  -4.714  0.00  0.00     0.004 A 
HETATM    6  C   UNK     0       6.701   9.453  -6.714  0.00  0.00     0.037 A 
HETATM    7  C   UNK     0       6.486  11.074  -4.824  0.00  0.00     0.035 A 
HETATM    8  C   UNK     0       7.053  11.035  -4.597  0.00  0.00     0.037 A 
HETATM    9  C   UNK     0       3.998  10.974  -6.154  0.00  0.00     0.000 A 
HETATM   10  C   UNK     0       4.963  10.874  -5.809  0.00  0.00     0.000 A 
HETATM   11  C   UNK     0       5.044  12.546  -3.713  0.00  0.00     0.000 A 
ENDROOT
TORSDOF 2
ENDMDL
MODEL 9
REMARK VINA RESULT:      -4.1      2.179      3.103
REMARK  2 active torsions:
REMARK  status: ('A' for Active; 'I' for Inactive)
REMARK    1  A    between atoms: C_4  and  C_10 
REMARK    2  A    between atoms: C_5  and  C_10 
ROOT
HETATM    1  N   UNK     0       8.055   8.907 -10.364  0.00  0.00     0.614 N 
HETATM    2  C   UNK     0       8.991   8.761  -9.082  0.00  0.00     0.270 A 
HETATM    3  C   UNK     0      11.141   7.720  -7.901  0.00  0.00     0.002 A 
HETATM    4  C   UNK     0      10.096   9.170  -6.109  0.00  0.00     0.002 A 
HETATM    5  C   UNK     0       9.550   9.378  -6.550  0.00  0.00     0.004 A 
HETATM    6  C   UNK     0      10.238   7.861  -9.138  0.00  0.00     0.037 A 
HETATM    7  C   UNK     0       9.118   9.323  -7.449  0.00  0.00     0.035 A 
HETATM    8  C   UNK     0       8.647   9.520  -7.787  0.00  0.00     0.037 A 
HETATM    9  C   UNK     0      11.404   8.202  -6.230  0.00  0.00     0.000 A 
HETATM   10  C   UNK     0      10.630   8.504  -6.837  0.00  0.00     0.000 A 
HETATM   11  C   UNK     0       9.206  10.136  -5.255  0.00  0.00     0.000 A 
ENDROOT
TORSDOF 2
ENDMDL
